data_MgCO3-P-1
_audit_creation_date              2014-04-25
_audit_creation_method            'Materials Studio'
_symmetry_space_group_name_H-M    'P-1'
_symmetry_Int_Tables_number       2
_symmetry_cell_setting            triclinic
loop_
_symmetry_equiv_pos_as_xyz
  x,y,z
  -x,-y,-z
_cell_length_a                    5.2114
_cell_length_b                    5.2383
_cell_length_c                    7.2679
_cell_angle_alpha                 70.0303
_cell_angle_beta                  81.9038
_cell_angle_gamma                 78.2718
loop_
_atom_site_label
_atom_site_type_symbol
_atom_site_fract_x
_atom_site_fract_y
_atom_site_fract_z
_atom_site_U_iso_or_equiv
_atom_site_adp_type
_atom_site_occupancy
C1     C    -0.08309  -0.33549  -0.30774   0.00000  Uiso   1.00
C2     C    -0.43916   0.02149  -0.32055   0.00000  Uiso   1.00
C3     C    -0.22303  -0.20957  -0.02698   0.00000  Uiso   1.00
O4     O    -0.00900  -0.29388  -0.14568   0.00000  Uiso   1.00
O5     O    -0.37486   0.61228  -0.95979   0.00000  Uiso   1.00
O6     O    -0.34399   0.04104  -0.15229   0.00000  Uiso   1.00
O7     O    -0.61084  -0.14131  -0.26831   0.00000  Uiso   1.00
O8     O    -0.54298   0.26105  -0.42431   0.00000  Uiso   1.00
O9     O    -0.22772  -0.52369  -0.26230   0.00000  Uiso   1.00
O10    O    -0.88203   0.61048  -0.42133   0.00000  Uiso   1.00
O11    O    -0.20389  -0.06836  -0.41426   0.00000  Uiso   1.00
O12    O    -0.12487   0.84710  -0.89556   0.00000  Uiso   1.00
Mg13   Mg   -1.06678   0.81795  -0.64827   0.00000  Uiso   1.00
Mg14   Mg   -0.25982   0.25495  -0.99823   0.00000  Uiso   1.00
Mg15   Mg   -0.56837   0.53353  -0.31655   0.00000  Uiso   1.00
loop_
_geom_bond_atom_site_label_1
_geom_bond_atom_site_label_2
_geom_bond_distance
_geom_bond_site_symmetry_2
_ccdc_geom_bond_type
C1     O4      1.386   .     S
C1     O9      1.288   .     S
C1     O10     1.286   1_645 S
C1     O11     1.412   .     S
C2     O6      1.424   .     S
C2     O7      1.290   .     S
C2     O8      1.276   .     S
C2     O11     1.392   .     S
C3     O4      1.404   .     S
C3     O5      1.271   1_546 S
C3     O6      1.400   .     S
C3     O12     1.287   1_546 S
O5     C3      1.271   1_564 S
O10    C1      1.286   1_465 S
O12    C3      1.287   1_564 S
